data:image/png;base64,iVBORw0KGgoAAAANSUhEUgAAACAAAAAgCAYAAABzenr0AAAJsklEQVRYR62XC3ST5RnH/2++XL+kadOkadOkbUh6o63cQSilwgDvw6rgPMoYiojHOScDdSpiB+i8HAYyh4iCirrNU+YAYTpAQcfKpVRAyiUtbZMmadI2bdO0zaXJ9707X3raUSjUXd5zcpLzfc/7PL/3ef7P+74hv3xQRzsDHDINEkjFBO1dHN78xEf+tsES3V3pF79T0UEAQLA7Ywvh8fu02HmwC4YUCZgO6ZLffdG8XXj/n46yKdlUmENeWqanMhlBb5CPO/36RA/0yWJ4fDE4vVGICPCLqfo39rn9T/s6YugIcFAqRDClSmEUsUMA5m4ZndMH+dlvHjslHwloEODBO5KoUS9BVU0Qd5aqcakpgkvOPkwsUMDbHsPpiyEsuVuDRBWDde+2QZfEQC4Txb9NjPKqDGTcr6fOP7cKWRM+8VUON348xUJ5UJBPX8ugX1f1ovpCCBmpEvA8EAzz8eCUAlIJgbUoJL5nYkZs/Q4fYhyNZ0CnEcMqVw0BGLM6i7ae6PZ5v+xImVqeQY+VO+PlG27cfqO5vwRCbRNVworEOFcfjq9O0MDiuzTU5Y3i4PGeQQ2oWBFiMQqHJ4pUrRjNfT5xRQW4yauta6rW1K+e/nZewL7fr0pKYMwhOXXEAyhkVfVv2qdcCXHzjRmUEoDYD5dRtfEOtFzYAoXaCFAC86zdZMECMBuXPHnBeOumXGGyYNfqrkFG/jxEuhvi/swzd5E5j1oSvSZuHxNWFueGAso6raQ96AwpHjB4GcFmh8fAETFB/R+ah2Rj9lQTFYGAtNa8Sltr30d3SA6lLAy1Ng8qwxyc/mYDojEKa6KhKnfh0SkX9k6j4Hrg9vbAZJBDrs6HeeZf406NS9Np5FyowXyz1ttW311sVLNmr6OnMKoi+6xprOZ8bU+nNJGplGmY4vrN/SA/mmrs10DdvnFUps5Dm6saWkMhxIp0+N1f4eO9nQj3UZSMYzFtxh0ItF/CieoLEMrAiICi0enIvvVY3NmoRXrKZTCIno3Bs6eN6BemUgUnWqXQKNf0+gIirUVVXiZvWFteDn6gFDdNS+/XgPOfP6X+1u+RoDHD13wOEjYViLZh5wE/QhE+DnC6q4lZNu/X3KH9n4DjaLwjcrJkGF1We7nayeiVmXxSmgRJDiJvL+Q9Skmyxnu+FRfWN4kKHzfw5zZ7BsswY5qBxgjfrwHKhdFQb0PRtEcQ8p2Agpn4scO5Y6G/m0Olt5ERyO2H76ZB/0X09cWQlnMfwl3n4hq4Uly3bcnZ0A5+WdIlZUqsuVvXkNhnFzPizZfecvz8cttpxakDGVh4Va9mTP847vjMZzv0Y+9Z1Cr8bthzW/DKYJZ5X7DDtVhuuYlGXTH0OqNQFMvgeGmoAIU5AgAHHsTvctMEvRb2Q8egL8qlYkZCFGkppPq9z2ivvwelKxdds5dH2u3i+lhrpI0vuq/yMbk4pT8DruOnqefMWWit2dDlZSHc1YOAswV7du6D2+fGeEsO7n95JcQK9n8CEYIVPJtJs/LVS754qGb7+OnJlAhtWL//CM0sGYfD7/4JU++bhy57M5Kzk4P3/vYW1mcPY0XuI7hz5aOLVTr9hz9kxdezGfOCue/7l+1SwWZciaY/A6119XzLyYukYP4cuI6egT53FDqcHtiOfQv7JR/yrbkofvKBq1ZfVjHhmV0Lvnv9v4UaBAh52wZFGGhrgy7fim6XG+rMjGjA6REnmTNFwwWZ+GImrV7bJLy75oEzc0Wu7vD6Wt+Nr4/jjz9zeoifMdOTOI5QERkACIeCsFdW4tQJG5JZBcbOLkVaUTYEQV5rlcayFKrMkkGRIAmcWdeYKNjNe8/MT3DZxULrppelUNYkhSYBoarfuod0TGGJOkJBpIMATVU1cNWdwu69x1FYkIeSm4phmTFxWIBJr1q7/FxYTRx4jCHcFrVRBn0aszOsSLrX/rmDpN+gs9Qeb28wlKjQXh20ybTSrPQc5bPfrLBtGlhMwQx1GJTIBgFabA04vvcA3J09SEtUwmLJwdh7Z183A7lPmWjtRtdgGbJu1Vawo9n5kVAMQVcUmiIFeh0RsO38JC5HetI0WkYPPdEYL0XuDFUHAdEMAsTJGNAYx5FQRwAJyZr4o4ESlJSnU44Djq7t31SK1+esq1xRt2riqlF/t9gab6/Jy4hJRdLomTX1svgB9bNUPmNSAm2u6SaqfBm6joSgyZR11GxwaQcAKKAh5eUYVmQDqRo4QGaWm+Wext6QPEcJUSdZ4PeHKhq3eYm2REM141gkpss6q59v0M4tzzMcKLc1F72ZRUUBAolTK+1gfZHGjY4hcbJLlWEAskGBFb+SRSufd4y42eQsN1HR2eA6jGdX2d5wxe3N9xt2yccyd118zkVueM7cxXWE1eff8ZKidda+bluPRGdh36v+TePSy8VsLWUjRBCh8HDu29YW9+levS5fvfXb5bXLhlO9UALvuQjEShEuftBG8p42UV0q+0o7H3peHmSpv6WHaFPkq93OnjVSkZhGezmwWtmpXm9wgvcvbVe1q7WUjREQJg5QsCyNhtxhSLUS2D5sGzYLAkAE7E+okfv05NJGMnVNzuIWR/f7jdu8olnbJvHnDjTBWKC0u/8RMBsmptKOrh44347vE/ENb/ILJr7q5f6MCcNSynIiEOHS3T8y56ho08H++99IY/bG0XO/eurCgZmvZZtsR/zORLl4Zl+y9LDGwsB1sAuZd2u8nl2dnysK2aUPJrqYj9rSuZgOkPtFSJDzOPlaMxl1k6J/Kx4IljM/5VDdzrZZIwWfsjk7HHBHZLQxttD2R88n1qUGGuQoNDopYmEejJjA3xhGzBfzp85XJylYBr7jQYQb+s4igbnBs7u/HFcBxFvjSROt3fTvNF0PRn+zlrbubydZi1KpYowUMj8DT30Q44xpKjs6ergQj8D5MKzztNXHltdNNj+cxkcIgWdb/61oWIBRSw1UrGBQt8kVb8/L73DCpAkrDdTfzkORJoNYwpxqPtI13nCXAbzNB7GOpZ2OIHF82EL0C/Q0bXIiwi0hRFqjkBsksL3uIguWmxQVG1yhYQHGrjJTmUpEw70ciYQ5JBfocPSh04MlEoC21uo5sZC/GBDto0i0JGxXZyc8zPLhZ2b5bOs/8hpjGp2i7OS6S3vSFqfRx8xe5oMa/VL7ztZ3rsxmVql8qAZKt42nTV+6EOziYbklC8dWfHfNk864yMhL1SI0vuUcaRMTvW83xKb0eiTCH5jLIa4CGHiZ/8So35f2Jf9q69bq6PU0YHjYRD3bf5BeBrI45Ni+JsBIXfD/ej8A8C8Ao0rudJkLKwAAAABJRU5ErkJggg==